%chk=check.chk
%mem=1500mb
%nproc=32
# opt freq um062x/cc-pvtz

InChI=1S_slash_C10H12_slash_c1-3-7-8(4-1)10-6-2-5-9(7)10_slash_h1-3,6-10H,4-5H2

0   1
C         2.2533    0.3102    1.0448
C         1.3738    1.2878    0.8636
C         0.6294    1.1219   -0.4205
C         0.9831   -0.3085   -0.8836
C         2.2171   -0.7022   -0.0561
C        -0.3582   -0.7823   -0.2914
C        -1.6522   -1.4069   -0.6654
C        -2.6102   -0.7023   -0.0261
C        -2.0436    0.5834    0.5622
C        -0.8177    0.6672   -0.3233
H         2.9323    0.2662    1.8899
H         1.2509    2.1246    1.5428
H         0.8446    1.9066   -1.1792
H         1.0685   -0.4355   -1.9857
H         3.1366   -0.6116   -0.6722
H         2.1319   -1.7336    0.3480
H        -0.1553   -1.1286    0.7556
H        -1.7973   -2.3499   -1.1810
H        -3.6609   -0.9718   -0.0259
H        -1.7798    0.4613    1.6357
H        -2.7277    1.4437    0.4021
H        -1.2186    0.9602   -1.3344

